data_crystal
 
_cell_length_a    26.34300
_cell_length_b    26.34300
_cell_length_c    26.34300
_cell_angle_alpha 90.00000
_cell_angle_beta  90.00000
_cell_angle_gamma 90.00000
 
_symmetry_space_group_name_Hall 'P 1'
_symmetry_space_group_name_H-M  'P 1'
 
loop_
_symmetry_equiv_pos_as_xyz
 'x,y,z' 
 
loop_
_atom_site_label
_atom_site_type_symbol
_atom_site_fract_x
_atom_site_fract_y
_atom_site_fract_z
_atom_site_charge
Cu         Cu      0.28530   0.28530   0.00000   0.0
O          O       0.31660   0.24310   0.94780   0.0
C          C       0.29680   0.20320   0.93130   0.0
C          C       0.32200   0.17800   0.88700   0.0
C          C       0.36550   0.19940   0.86550   0.0
H          H       0.38020   0.22800   0.88020   0.0
