data_crystal
 
_cell_length_a    89.91900
_cell_length_b    90.31800
_cell_length_c    89.96800
_cell_angle_alpha 18.05900
_cell_angle_beta  18.93800
_cell_angle_gamma 19.02400
 
_symmetry_space_group_name_Hall 'P 1'
_symmetry_space_group_name_H-M  'P 1'
 
loop_
_symmetry_equiv_pos_as_xyz
 'x,y,z' 
 
loop_
_atom_site_label
_atom_site_type_symbol
_atom_site_fract_x
_atom_site_fract_y
_atom_site_fract_z
_atom_site_charge
C          C      -0.08924  -0.19608   0.36837   0.6227020000
C          C      -0.02344  -0.19303   0.36367   0.6225880000
C          C      -0.55952   0.22556   0.36474   0.6215610000
C          C      -0.37434   0.02900   0.36599   0.6174330000
C          C      -0.73659   0.16085   0.72685   0.6223540000
C          C       0.01097   0.09624   0.00355   0.6157390000
C          C      -0.27389   0.31991   0.00224   0.6223440000
C          C      -0.12698   0.32398  -0.00128   0.6233520000
C          C      -0.11183   0.32518  -0.00121  -0.1673490000
C          C      -0.29075   0.32143   0.00104  -0.0087390000
C          C       0.05942   0.04661   0.00179  -0.0103270000
C          C      -0.78521   0.20970   0.72881  -0.1713200000
C          C      -0.42231   0.07959   0.36594  -0.0126150000
C          C      -0.51210   0.17503   0.36578  -0.1702880000
C          C      -0.04158  -0.19224   0.36476  -0.1708980000
C          C      -0.07230  -0.19547   0.36739  -0.0073180000
C          C      -0.46837  -0.01990   0.72927   0.3009410000
C          C      -0.26005   0.28005   0.00157  -0.1476630000
C          C       0.09701   0.02267   0.00031  -0.1478620000
C          C      -0.82326   0.23410   0.73011   0.3038660000
C          C      -0.79436   0.23282   0.72974  -0.0735090000
C          C       0.06720   0.02488   0.00095  -0.2313960000
C          C      -0.06527   0.28249   0.00063  -0.0751070000
C          C      -0.33673   0.36408  -0.00089  -0.2279390000
C          C      -0.08984  -0.15073   0.36552   0.3052140000
C          C      -0.63535   0.40689   0.36672  -0.1528290000
C          C      -0.29121   0.15139   0.36526  -0.0773290000
C          C      -0.43042   0.10185   0.36652  -0.2272030000
C          C      -0.24725   0.10426   0.36549  -0.1542770000
C          C      -0.47526   0.14971   0.36674   0.3010860000
C          C      -0.62092   0.40912   0.36549  -0.0739190000
C          C      -0.10394  -0.15378   0.36686  -0.2295410000
C          C      -0.19264   0.02161   0.23121  -0.0145140000
C          C      -0.52652   0.23083   0.49865  -0.1740880000
C          C      -0.31031  -0.12051   0.49897  -0.0067560000
C          C      -0.41458   0.37537   0.23322  -0.1684320000
C          C      -0.52881   0.37541   0.23163  -0.0129090000
C          C      -0.19557  -0.11734   0.49725  -0.1628910000
C          C      -0.64633   0.23341   0.49857  -0.0128300000
C          C      -0.07918   0.02245   0.23430  -0.1686430000
C          C      -0.65131   0.14696   0.60013  -0.1651290000
C          C      -0.07254   0.10553   0.13295  -0.0078250000
C          C      -0.44452   0.39753   0.13301  -0.1666540000
C          C      -0.28053  -0.13860   0.59655  -0.0129100000
C          C      -0.37330  -0.14355   0.59979  -0.1721190000
C          C      -0.34775   0.39440   0.13319  -0.0122330000
C          C      -0.16554   0.10425   0.13174  -0.1617710000
C          C      -0.55567   0.14975   0.59849  -0.0046200000
C          C      -0.57049   0.10616   0.65129   0.6465830000
C          C      -0.15513   0.15025   0.08067   0.6491530000
C          C      -0.31198   0.40329   0.08082   0.6548130000
C          C      -0.40842  -0.15192   0.65112   0.6580680000
C          C      -0.32635  -0.14865   0.64917   0.6552900000
C          C      -0.39838   0.40578   0.08237   0.6535090000
C          C      -0.06959   0.15002   0.07936   0.6494140000
C          C      -0.65269   0.10261   0.65222   0.6455600000
C          C      -0.07912  -0.02357   0.28603   0.6491690000
C          C      -0.64427   0.27927   0.44502   0.6480810000
C          C      -0.14874  -0.11016   0.44679   0.6543430000
C          C      -0.57397   0.36430   0.28377   0.6515770000
C          C      -0.44752   0.36489   0.28487   0.6509920000
C          C      -0.27575  -0.10933   0.44554   0.6486780000
C          C      -0.51449   0.27543   0.44746   0.6566470000
C          C      -0.20614  -0.02281   0.28369   0.6552810000
C          C      -0.22432   0.07339   0.20606  -0.1471300000
C          C      -0.49426   0.17758   0.52427   0.3061060000
C          C      -0.36418  -0.09513   0.52345  -0.1481610000
C          C      -0.36129   0.35297   0.20734  -0.0726030000
C          C      -0.52870   0.41089   0.20846  -0.2220390000
C          C      -0.19736  -0.15433   0.52387  -0.0762250000
C          C      -0.66480   0.23980   0.52465  -0.1433270000
C          C      -0.05709   0.01367   0.20744  -0.0791870000
C          C      -0.28820  -0.15704   0.52445  -0.2244900000
C          C      -0.43478   0.40798   0.20821   0.3045460000
C          C      -0.14803   0.01097   0.20710  -0.2249340000
C          C      -0.57226   0.24162   0.52378  -0.0672550000
C          C      -0.63096   0.18502   0.52273  -0.2213970000
C          C      -0.09920   0.07488   0.20969   0.3057700000
C          C      -0.48717   0.35057   0.20601  -0.1454300000
C          C      -0.23819  -0.08958   0.52090   0.3018220000
C          C      -0.48702   0.42322   0.15867   0.2997740000
C          C      -0.23899  -0.16528   0.57283  -0.1445580000
C          C      -0.66685   0.19672   0.57463  -0.0726740000
C          C      -0.05367   0.05413   0.15763  -0.1484080000
C          C      -0.21042   0.11368   0.15708  -0.0756780000
C          C      -0.51050   0.13787   0.57489  -0.2271070000
C          C      -0.39462  -0.10693   0.57309  -0.0713460000
C          C      -0.32776   0.36167   0.15822  -0.1484060000
C          C      -0.63326   0.14074   0.57401   0.2992520000
C          C      -0.09472   0.11557   0.15839  -0.2230700000
C          C      -0.44586   0.36178   0.15751  -0.0730680000
C          C      -0.28008  -0.10161   0.57103  -0.2222710000
C          C      -0.31856  -0.16985   0.57528   0.3036310000
C          C      -0.40000   0.41717   0.15749  -0.2236910000
C          C      -0.13289   0.05147   0.15677   0.3010120000
C          C      -0.58701   0.20204   0.57279  -0.1452390000
N          N      -0.44876   0.16395   0.50146  -0.6001300000
H          H      -0.25872   0.08053   0.22551   0.1292070000
H          H      -0.34747   0.32844   0.22764   0.1327050000
H          H      -0.38060  -0.06697   0.50296   0.1289550000
H          H      -0.16418  -0.17458   0.50456   0.1280360000
H          H      -0.56163   0.42964   0.22913   0.1394180000
H          H      -0.04241  -0.02666   0.22751   0.1265150000
H          H      -0.67678   0.27807   0.50503   0.1311290000
H          H      -0.48839   0.32335   0.22474   0.1282800000
N          N      -0.24086  -0.05129   0.49677  -0.6014380000
H          H      -0.61725   0.18158   0.50166   0.1326060000
N          N      -0.12312   0.08756   0.23371  -0.5991820000
H          H      -0.12426  -0.02960   0.22742   0.1378300000
H          H      -0.59577   0.28256   0.50311   0.1282350000
H          H      -0.24651  -0.17614   0.50460   0.1399820000
N          N      -0.48540   0.42918   0.23179  -0.6001470000
H          H      -0.10917   0.15574   0.13836   0.1401720000
N          N      -0.61969   0.09466   0.59711  -0.6076430000
H          H      -0.31301  -0.08155   0.59038   0.1391270000
H          H      -0.41282   0.34305   0.13678   0.1273230000
H          H      -0.41407   0.44187   0.13729   0.1366060000
N          N      -0.29466  -0.20734   0.59930  -0.6010990000
H          H      -0.62194   0.21012   0.59201   0.1298590000
N          N      -0.08738   0.03829   0.13356  -0.6039660000
H          H      -0.43630  -0.08785   0.59302   0.1251380000
H          H      -0.28672   0.34401   0.13856   0.1287590000
H          H      -0.23400   0.15431   0.13655   0.1323910000
H          H      -0.48718   0.09705   0.59577   0.1347860000
H          H      -0.68029   0.19986   0.59573   0.1252280000
H          H      -0.03673   0.04745   0.13697   0.1290860000
N          N      -0.48937   0.45983   0.13638  -0.6044550000
H          H      -0.24024  -0.19386   0.59334   0.1280760000
H          H      -0.57548  -0.00117   0.70110   0.4376540000
H          H      -0.14314   0.25494   0.02576   0.4314560000
H          H      -0.18430   0.25634   0.03048   0.4341960000
H          H      -0.54527   0.00542   0.69877   0.4349450000
H          H      -0.00195  -0.12777   0.33578   0.4368300000
H          H      -0.72103   0.38403   0.39455   0.4384950000
H          H      -0.51654   0.41345   0.33523   0.4314060000
H          H      -0.20754  -0.15834   0.39627   0.4327860000
H          H       0.03752   0.04441   0.00199   0.1347830000
H          H      -0.76451   0.21326   0.72851   0.1306780000
H          H      -0.68513   0.00803   0.73025   0.1362100000
H          H      -0.04286   0.25114   0.00143   0.1306160000
H          H      -0.22423   0.24719   0.00296   0.1321100000
N          N      -0.81717   0.21457   0.72888  -0.6041240000
H          H       0.09016   0.04042   0.00086   0.1323600000
N          N      -0.48194   0.16899   0.36885  -0.6027240000
H          H      -0.24032   0.08622   0.36517   0.1303990000
H          H      -0.14034  -0.12288   0.36749   0.1377600000
H          H      -0.58465   0.37819   0.36508   0.1280530000
H          H      -0.61117   0.37453   0.36731   0.1335860000
N          N      -0.12251  -0.10919   0.36544  -0.5997180000
H          H      -0.40154   0.08169   0.36701   0.1421290000
H          H      -0.32004   0.17180   0.36451   0.1331410000
O          O      -0.13259  -0.15798   0.36884  -0.6037420000
O          O      -0.59135   0.41065   0.36541  -0.6125060000
O          O      -0.56850   0.24705   0.36575  -0.6089420000
O          O      -0.15577   0.00836   0.36603  -0.6038980000
O          O      -0.34242   0.00856   0.36604  -0.5985780000
O          O      -0.37898   0.24665   0.36298  -0.6083050000
O          O      -0.67030   0.40871   0.36870  -0.5972070000
O          O      -0.05067  -0.15361   0.36054  -0.6096430000
O          O      -0.30421   0.35639   0.00503  -0.6106950000
O          O      -0.09711   0.28452  -0.00017  -0.6117820000
O          O      -0.02268   0.11657   0.00563  -0.6062140000
O          O      -0.70451   0.14106   0.72625  -0.6130370000
O          O      -0.72749   0.13912   0.72598  -0.6097040000
O          O       0.00552   0.11614   0.00279  -0.5950400000
O          O      -0.22974   0.28240   0.00011  -0.5944000000
O          O      -0.49523  -0.02522   0.72930  -0.6049660000
O          O      -0.46037  -0.03873   0.68037  -0.9413700000
O          O      -0.26156   0.29163   0.05135  -0.9474660000
O          O      -0.17770   0.29428   0.04847  -0.9423180000
O          O      -0.54664  -0.03985   0.68337  -0.9593780000
O          O      -0.37797  -0.17036   0.68113  -0.9470450000
O          O      -0.34570   0.42737   0.04827  -0.9468630000
O          O      -0.10468   0.17405   0.04861  -0.9622650000
O          O      -0.61840   0.08321   0.68076  -0.9568840000
O          O      -0.26088  -0.04154   0.31687  -0.9457180000
O          O      -0.67304   0.29530   0.41442  -0.9472740000
O          O      -0.30488  -0.09417   0.41678  -0.9510760000
O          O      -0.63048   0.35017   0.31456  -0.9347980000
O          O      -0.57916   0.47203   0.31913  -0.9711810000
O          O      -0.14280  -0.21875   0.41240  -0.9698250000
O          O      -0.01781  -0.22115   0.41782  -0.9319870000
O          O      -0.09540  -0.16656   0.31391  -0.9474350000
O          O      -0.17781  -0.06847   0.30649  -0.6453050000
O          O      -0.54660   0.32252   0.42811  -0.6454130000
O          O      -0.22754  -0.13322   0.42546  -0.6350050000
O          O      -0.49606   0.38522   0.30891  -0.6353760000
O          O      -0.57445   0.33361   0.30323  -0.6060910000
O          O      -0.14501  -0.08072   0.42561  -0.6442220000
O          O      -0.62555   0.27075   0.42223  -0.6544510000
O          O      -0.09648  -0.01654   0.30914  -0.6493430000
O          O      -0.29644  -0.07662   0.42307  -0.6428600000
O          O      -0.42568   0.33549   0.30375  -0.6517810000
O          O      -0.24481  -0.01368   0.30334  -0.6120460000
O          O      -0.47357   0.26765   0.42320  -0.6167880000
O          O      -0.66136   0.32400   0.42527  -0.6260450000
O          O      -0.06146  -0.06913   0.30619  -0.6535330000
O          O      -0.61043   0.38685   0.30626  -0.6496680000
O          O      -0.11287  -0.13344   0.42557  -0.6368680000
O          O      -0.36147   0.38045   0.06240  -0.6495830000
O          O      -0.36162  -0.12484   0.66932  -0.6144660000
O          O      -0.63688   0.05654   0.67505  -0.6417820000
O          O      -0.08399   0.19507   0.05673  -0.6480180000
O          O      -0.11670   0.14297   0.05976  -0.6531560000
O          O      -0.60897   0.11653   0.66940  -0.6236320000
O          O      -0.39003  -0.18248   0.67424  -0.6292890000
O          O      -0.33147   0.43628   0.05684  -0.6507060000
O          O      -0.66950   0.11213   0.67250  -0.6583890000
O          O      -0.05326   0.14078   0.05942  -0.6213990000
O          O      -0.39546   0.43716   0.05953  -0.6252630000
O          O      -0.32816  -0.18081   0.67166  -0.6301730000
O          O      -0.45715  -0.12788   0.67164  -0.6415990000
O          O      -0.26411   0.37791   0.06229  -0.6043130000
O          O      -0.18452   0.19543   0.05938  -0.6370670000
O          O      -0.54303   0.06055   0.67511  -0.6573050000
O          O      -0.20627  -0.12643   0.36845  -1.0192550000
O          O      -0.51665   0.38056   0.36326  -1.0120460000
O          O      -0.68645   0.37914   0.36868  -1.0246210000
O          O      -0.03560  -0.12535   0.36305  -1.0147160000
O          O      -0.61001   0.00243   0.72887  -1.0208120000
O          O      -0.10923   0.25082   0.00035  -1.0171930000
O          O      -0.15935   0.25276   0.00264  -1.0130140000
O          O      -0.56608   0.00603   0.72639  -1.0202010000
Ti         Ti     -0.03709  -0.14828   0.36480   2.0768780000
Ti         Ti     -0.68373   0.40390   0.36383   2.0913560000
Ti         Ti     -0.44620   0.31763   0.35987   2.0654200000
Ti         Ti     -0.27481  -0.06099   0.36733   2.0762970000
Ti         Ti     -0.09119  -0.06205   0.36604   2.0642740000
Ti         Ti     -0.63297   0.31512   0.36817   2.0653210000
Ti         Ti     -0.56345   0.39909   0.37141   2.0683860000
Ti         Ti     -0.16101  -0.14707   0.36406   2.0944660000
Ti         Ti     -0.28851   0.36363   0.00513   2.0838390000
Ti         Ti     -0.11054   0.27384   0.00119   2.0811590000
Ti         Ti     -0.09045   0.18909   0.00227   2.0627800000
Ti         Ti     -0.31358   0.45719   0.00048   2.0912730000
Ti         Ti     -0.66310   0.06799   0.72719   2.0638400000
Ti         Ti     -0.38001  -0.19935   0.72873   2.0779140000
Ti         Ti     -0.52422  -0.11247   0.73023   2.0716150000
Ti         Ti     -0.52329  -0.01852   0.72799   2.0636370000
H          H      -0.45639   0.46273   0.10446   0.3215110000
H          H      -0.51616   0.46988   0.16026   0.3116620000
H          H      -0.49870   0.45715   0.20952   0.3130440000
H          H      -0.51051   0.42583   0.26600   0.3221720000
H          H      -0.13152   0.12362   0.21182   0.3175430000
H          H      -0.12191   0.05729   0.26796   0.3210720000
H          H      -0.08015   0.06887   0.10091   0.3191450000
H          H      -0.07028   0.00266   0.15679   0.3115160000
H          H      -0.25702  -0.21871   0.57671   0.3149690000
H          H      -0.31710  -0.21112   0.63223   0.3264760000
H          H      -0.59907   0.08980   0.57284   0.3114090000
H          H      -0.61510   0.06142   0.63025   0.3253110000
H          H      -0.43960   0.19381   0.46707   0.3243020000
H          H      -0.43025   0.12741   0.52368   0.3140900000
H          H      -0.20810  -0.04801   0.46465   0.3192000000
H          H      -0.26859  -0.03907   0.51923   0.3127720000
H          H      -0.51999   0.62004  -0.00063   0.3259990000
H          H      -0.78442   0.18092   0.72735   0.3308950000
H          H      -0.21015   0.43665  -0.00098   0.3200920000
H          H      -0.52712   0.02353   0.72881   0.3297060000
N          N      -0.51292   0.02351   0.72574  -0.6020160000
H          H      -0.51222   0.20554   0.36471   0.3308580000
H          H      -0.45199   0.15305   0.36294   0.3191640000
H          H      -0.11189  -0.10620   0.36313   0.3315000000
H          H      -0.15587  -0.08067   0.36546   0.3202700000
