# CIF file generated by openbabel 2.3.2, see http://openbabel.sf.net
data_I
_chemical_name_common ''
_cell_length_a 6.68821
_cell_length_b 13.4458
_cell_length_c 13.7606
_cell_angle_alpha 89.9775
_cell_angle_beta 130.058
_cell_angle_gamma 89.9832
_space_group_name_H-M_alt 'P 1'
_space_group_name_Hall 'P 1'
loop_
    _symmetry_equiv_pos_as_xyz
    'x,y,z'
loop_
    _atom_site_type_symbol
    _atom_site_label
    _atom_site_Cartn_x
    _atom_site_Cartn_y
    _atom_site_Cartn_z
     Al   Al     3.34607    6.72288    0.00000
     Al   Al    -1.08377    0.00400    5.26616
     Al   Al     0.00197    6.72288    0.00000
     Al   Al    -4.42788    0.00400    5.26616
      O    O    -7.18023    6.71010    9.73103
      O    O     0.58701   -0.01085    6.06757
      O    O     5.01655    6.74352    0.80130
      O    O    -2.75460    0.01872    4.46465
      O    O     0.53792    5.38533    1.27873
      O    O     1.73289   12.09844    4.00039
      O    O    -2.70151    8.06844    9.25349
      O    O    -3.89656    1.35532    6.53194
      O    O     2.81760    5.36610    1.27610
      O    O    -0.54633   12.10071    3.98322
      O    O    -4.98128    8.08767    9.25623
      O    O    -1.61734    1.35291    6.54911
      O    O    -0.55425    1.40386    4.04842
      O    O     2.81142    8.11786    1.22196
      O    O    -1.60933   12.04991    6.48380
      O    O    -4.97501    5.33576    9.31026
      O    O     1.72151    1.38812    4.04694
      O    O     0.53586    8.12108    1.20395
      O    O    -3.88525   12.06564    6.48538
      O    O    -2.69944    5.33268    9.32827
      C    C     1.67269    4.91242    1.60671
      C    C     0.59682   11.63672    3.66146
      C    C    -3.83628    8.54134    8.92551
      C    C    -2.76056    1.81690    6.87087
      C    C     1.68970    3.70525    2.47489
      C    C     0.57583   10.43253    2.78906
      C    C    -3.85338    9.74838    8.05744
      C    C    -2.73950    3.02110    7.74326
      C    C     0.56984    3.07749    2.86132
      C    C     1.69268    9.79720    2.40569
      C    C    -2.73349   10.37627    7.67090
      C    C    -3.85643    3.65656    8.12664
      C    C     0.58821    1.86708    3.71928
      C    C     1.67001    8.58965    1.54277
      C    C    -2.75189   11.58668    6.81305
      C    C    -3.83366    4.86398    8.98944
      H    H     2.67262    3.33706    2.77748
      H    H    -0.40850   10.07370    2.47994
      H    H    -4.83621   10.11657    7.75474
      H    H    -1.75517    3.38006    8.05238
      H    H    -0.41166    3.45199    2.56157
      H    H     2.67607   10.16101    2.71355
      H    H    -1.75209   10.00177    7.97076
      H    H    -4.83975    3.29262    7.81878
      H    H    -7.17922    6.38201    8.81861
      H    H     0.59018   13.12097    6.98504
      H    H     5.01563    7.07162    1.71361
      H    H    -2.75385    0.33265    3.54729
